spice

.options trsteporder 1
.options trtol 1

.subckt net a b gnd
X1 i b 0 net95
X2 i a 0 net95
.ends

.subckt net95 a b gnd
C 1 0 2.080806f
R a 1 2.224404
C 2 0 2.080806f
R 1 2 2.224404
C 3 0 2.080806f
R 3 2 2.224404
C 4 0 2.080806f
R 4 3 2.224404
C 5 0 2.080806f
R 5 4 2.224404
C 6 0 2.080806f
R 6 5 2.224404
C 7 0 2.080806f
R  6 7 2.224404
C  8 0 2.080806f
R  8  7 2.224404
C  9 0 2.080806f
R  9  8 2.224404
C 10 0 2.080806f
R  9 10 2.224404
C 11 0 2.080806f
R 11 10 2.224404
C 12 0 2.080806f
R 12 11 2.224404
C 13 0 2.080806f
R 13 12 2.224404
C 14 0 2.080806f
R 13 14 2.224404
C 15 0 2.080806f
R 15 14 2.224404
C 16 0 2.080806f
R 15 16 2.224404
C 17 0 2.080806f
R 17 16 2.224404
C 18 0 2.080806f
R 18 17 2.224404
C 19 0 2.080806f
R 19 18 2.224404
C 20 0 2.080806f
R 19 20 2.224404
C 21 0 2.080806f
R 21 20 2.224404
C 22 0 2.080806f
R 22 21 2.224404
C 23 0 2.080806f
R 23 22 2.224404
C 24 0 2.080806f
R 24 23 2.224404
C 25 0 2.080806f
R 24 25 2.224404
C 26 0 2.080806f
R 25 26 2.224404
C 27 0 2.080806f
R 27 26 2.224404
C 28 0 2.080806f
R 28 27 2.224404
C 29 0 2.080806f
R 28 29 2.224404
C 30 0 2.080806f
R 29 30 2.224404
C 31 0 2.080806f
R 30 31 2.224404
C 32 0 2.080806f
R 32 31 2.224404
C 33 0 2.080806f
R 32 33 2.224404
C 34 0 2.080806f
R 34 33 2.224404
C 35 0 2.080806f
R 34 35 2.224404
C 36 0 2.080806f
R 36 35 2.224404
C 37 0 2.080806f
R 37 36 2.224404
C 38 0 2.080806f
R 37 38 2.224404
C 39 0 2.080806f
R 38 39 2.224404
C 40 0 2.080806f
R 40 39 2.224404
C 41 0 2.080806f
R 41 40 2.224404
C 42 0 2.080806f
R 42 41 2.224404
C 43 0 2.080806f
R 43 42 2.224404
C 44 0 2.080806f
R 43 44 2.224404
C 45 0 2.080806f
R 45 44 2.224404
C 46 0 2.080806f
R 46 45 2.224404
C 47 0 2.080806f
R 46 47 2.224404
C 48 0 2.080806f
R 48 47 2.224404
C 49 0 2.080806f
R 49 48 2.224404
C 50 0 2.080806f
R 50 49 2.224404
C 51 0 2.080806f
R 51 50 2.224404
C 52 0 2.080806f
R 52 51 2.224404
C 53 0 2.080806f
R 53 52 2.224404
C 54 0 2.080806f
R 54 53 2.224404
C 55 0 2.080806f
R 55 54 2.224404
C 56 0 2.080806f
R 55 56 2.224404
C 57 0 2.080806f
R 57 56 2.224404
C 58 0 2.080806f
R 58 57 2.224404
C 59 0 2.080806f
R 59 58 2.224404
C 60 0 2.080806f
R 59 60 2.224404
C 61 0 2.080806f
R 61 60 2.224404
C 62 0 2.080806f
R 62 61 2.224404
C 63 0 2.080806f
R 62 63 2.224404
C 64 0 2.080806f
R 63 64 2.224404
C 65 0 2.080806f
R 64 65 2.224404
C 66 0 2.080806f
R 65 66 2.224404
C 67 0 2.080806f
R 67 66 2.224404
C 68 0 2.080806f
R 67 68 2.224404
C 69 0 2.080806f
R 69 68 2.224404
C 70 0 2.080806f
R 70 69 2.224404
C 71 0 2.080806f
R 70 71 2.224404
C 72 0 2.080806f
R 72 71 2.224404
C 73 0 2.080806f
R 73 72 2.224404
C 74 0 2.080806f
R 74 73 2.224404
C 75 0 2.080806f
R 75 74 2.224404
C 76 0 2.080806f
R 75 76 2.224404
C 77 0 2.080806f
R 77 76 2.224404
C 78 0 2.080806f
R 78 77 2.224404
C 79 0 2.080806f
R 79 78 2.224404
C 80 0 2.080806f
R 79 80 2.224404
C 81 0 2.080806f
R 81 80 2.224404
C 82 0 2.080806f
R 82 81 2.224404
C 83 0 2.080806f
R 82 83 2.224404
C 84 0 2.080806f
R 84 83 2.224404
C 85 0 2.080806f
R 85 84 2.224404
C 86 0 2.080806f
R 85 86 2.224404
C 87 0 2.080806f
R 87 86 2.224404
C 88 0 2.080806f
R 88 87 2.224404
C 89 0 2.080806f
R 89 88 2.224404
C 90 0 2.080806f
R 89 90 2.224404
C 91 0 2.080806f
R 90 91 2.224404
C 92 0 2.080806f
R 92 91 2.224404
C 93 0 2.080806f
R 93 92 2.224404
C 94 0 2.080806f
R 94 93 2.224404
C 95 0 2.080806f
R 95 94 2.224404
C  b 0 2.080806f
R  b 95 2.224404
.ends

X1 nout1 nin 0 net

V30 nin 0 pulse(0 1.8 0p 100p 100p .5n 1n) ac 1

.dc
.print ac vp(nout*) vm(nout*)
.print tran v(nout*) v(nin)

.ac 1e6 1e10 * 2 > rc_chain_ac.out
.!cat rc_chain_ac.out
.tr 2n basic > rc_chain_tr.out
.!cat rc_chain_tr.out
