
attach ../modelgen_0.so


spice
.subckt vsin p n
.parameter ampl
.parameter dc
V1 p n sin freq=1 amplitude={ampl} dc=dc
.ends

.verilog

`modelgen
module test_xdt0(out, in);
  electrical out, in;
parameter real c=1;
  analog begin
    I(out) <+ ddt(c*V(in));
  end
endmodule

!make test_xdt0.so > /dev/null

attach ./test_xdt0.so

verilog

test_xdt0 #(.c(c)) dut(out, in);
resistor #(.r(1)) r(0, out);

parameter v=0
parameter c=1m
vsin #(.dc(v), .ampl(1)) v1(in, 0);

print tran v(in) v(r) iter(0)
tran .5
status notime
