
load ../d_vasrc.so
load ../lang_verilog.so
load ../vams/resistor.so

options nobypass
verilog

resistor #(.r(2) .m(2)) r1(in, 0)

spice

V1 in 0 ac 1 dc 0.9 tran sin

.print tran v(nodes) iter(0)
.print dc v(nodes) iter(0)
.print ac vm(nodes) vp(nodes)

.dc
.tran 1
.ac 1 2 * 2
.status notime
